goiania_leste_dss/TR2/CTMT_5001996.dss
! ==============================================================================
! ALIMENTADOR CTMT_5001996 - GOIANIA LESTE-17
! Subestacao: Trafo TR2 (GOL-S-TRF-TR2) | Barra MT: 4629 -> PAC_INI: 84804535001996
! ==============================================================================

! 1. Disjuntor de Saida MT do Alimentador
new line.DJ_5001996 phases=3 bus1=4629 bus2=84804535001996 switch=y r1=1e-4 x1=1e-4 length=0.001 units=km

! 2. Linhas de Media Tensao (MT)
new line.52880732 phases=3 bus1=80496295001996.1.2.3 bus2=80496305001996.1.2.3 r1=0.975 x1=0.47 length=0.057881 units=km normamps=152.0
new line.52880733 phases=3 bus1=80496315001996.1.2.3 bus2=80496305001996.1.2.3 r1=0.195 x1=0.4 length=0.039784 units=km normamps=419.0
new line.52880734 phases=3 bus1=80497815001996.1.2.3 bus2=93440015001996.1.2.3 r1=0.195 x1=0.4 length=0.006549 units=km normamps=419.0
new line.52880735 phases=3 bus1=80497825001996.1.2.3 bus2=80497815001996.1.2.3 r1=0.195 x1=0.4 length=0.016287 units=km normamps=419.0
new line.52880736 phases=3 bus1=80463625001996.1.2.3 bus2=80463635001996.1.2.3 r1=0.188 x1=0.26 length=0.03189 units=km normamps=525.0
new line.52880739 phases=3 bus1=80496325001996.1.2.3 bus2=94563155001996.1.2.3 r1=0.195 x1=0.4 length=0.010781 units=km normamps=419.0
new line.52880740 phases=3 bus1=80496335001996.1.2.3 bus2=80496325001996.1.2.3 r1=0.195 x1=0.4 length=0.034319 units=km normamps=419.0
new line.52880741 phases=3 bus1=80496335001996.1.2.3 bus2=87301635001996.1.2.3 r1=0.195 x1=0.4 length=0.020223 units=km normamps=419.0
new line.52880742 phases=3 bus1=80496365001996.1.2.3 bus2=87301525001996.1.2.3 r1=0.195 x1=0.4 length=0.009922 units=km normamps=419.0
new line.52880895 phases=3 bus1=80484615001996.1.2.3 bus2=91107015001996.1.2.3 r1=0.195 x1=0.4 length=0.022008 units=km normamps=419.0
new line.52880896 phases=3 bus1=80484625001996.1.2.3 bus2=80484615001996.1.2.3 r1=0.195 x1=0.4 length=0.040401 units=km normamps=419.0
new line.52880916 phases=3 bus1=80485195001996.1.2.3 bus2=80485205001996.1.2.3 r1=0.195 x1=0.4 length=0.030153 units=km normamps=419.0
new line.52880917 phases=3 bus1=80485205001996.1.2.3 bus2=80485215001996.1.2.3 r1=0.195 x1=0.4 length=0.040085 units=km normamps=419.0
new line.52880918 phases=3 bus1=80485215001996.1.2.3 bus2=86980885001996.1.2.3 r1=0.195 x1=0.4 length=0.013808 units=km normamps=419.0
new line.52880920 phases=3 bus1=80485245001996.1.2.3 bus2=87798125001996.1.2.3 r1=0.195 x1=0.4 length=0.016409 units=km normamps=419.0
new line.52880921 phases=3 bus1=80485255001996.1.2.3 bus2=80485265001996.1.2.3 r1=0.195 x1=0.4 length=0.032469 units=km normamps=419.0
new line.52880922 phases=3 bus1=80485265001996.1.2.3 bus2=80484625001996.1.2.3 r1=0.195 x1=0.4 length=0.032578 units=km normamps=419.0
new line.52880924 phases=3 bus1=80485285001996.1.2.3 bus2=80485195001996.1.2.3 r1=0.195 x1=0.4 length=0.007831 units=km normamps=419.0
new line.52880991 phases=3 bus1=80500735001996.1.2.3 bus2=80485215001996.1.2.3 r1=0.195 x1=0.4 length=0.01647 units=km normamps=419.0
new line.52880992 phases=3 bus1=80495035001996.1.2.3 bus2=80495095001996.1.2.3 r1=0.195 x1=0.4 length=0.022703 units=km normamps=419.0
new line.52880993 phases=3 bus1=80495095001996.1.2.3 bus2=91088425001996.1.2.3 r1=0.195 x1=0.4 length=0.010313 units=km normamps=419.0
new line.52880994 phases=3 bus1=80495105001996B.1.2.3 bus2=91888355001996.1.2.3 r1=0.195 x1=0.4 length=0.008501 units=km normamps=419.0
new line.52880995 phases=3 bus1=80496345001996.1.2.3 bus2=80496365001996.1.2.3 r1=0.195 x1=0.4 length=0.041725 units=km normamps=419.0
new line.52880996 phases=3 bus1=80496555001996.1.2.3 bus2=87390755001996.1.2.3 r1=0.975 x1=0.47 length=0.018865 units=km normamps=152.0
new line.52880997 phases=3 bus1=80496565001996.1.2.3 bus2=80496575001996B.1.2.3 r1=0.975 x1=0.47 length=0.02145 units=km normamps=152.0
new line.52880998 phases=3 bus1=80496575001996.1.2.3 bus2=80496585001996.1.2.3 r1=0.975 x1=0.47 length=0.021613 units=km normamps=152.0
new line.52880999 phases=3 bus1=80496585001996.1.2.3 bus2=80496305001996.1.2.3 r1=0.195 x1=0.4 length=0.038707 units=km normamps=419.0
new line.52881000 phases=3 bus1=80496605001996.1.2.3 bus2=80496615001996.1.2.3 r1=0.975 x1=0.47 length=0.026139 units=km normamps=152.0
new line.52881001 phases=3 bus1=80496615001996.1.2.3 bus2=80496625001996.1.2.3 r1=0.975 x1=0.47 length=0.025796 units=km normamps=152.0
new line.52881002 phases=3 bus1=80496645001996.1.2.3 bus2=80496625001996.1.2.3 r1=0.975 x1=0.47 length=0.009916 units=km normamps=152.0
new line.52881003 phases=3 bus1=80496625001996.1.2.3 bus2=80496635001996.1.2.3 r1=0.975 x1=0.47 length=0.028649 units=km normamps=152.0
new line.52881007 phases=3 bus1=80499645001996.1.2.3 bus2=80499665001996.1.2.3 r1=0.975 x1=0.47 length=0.004739 units=km normamps=152.0
new line.52881008 phases=3 bus1=80499655001996.1.2.3 bus2=80499665001996.1.2.3 r1=0.975 x1=0.47 length=0.019368 units=km normamps=152.0
new line.52881009 phases=3 bus1=80499665001996.1.2.3 bus2=80498915001996.1.2.3 r1=0.975 x1=0.47 length=0.01303 units=km normamps=152.0
new line.52881010 phases=3 bus1=80499665001996.1.2.3 bus2=80499675001996.1.2.3 r1=0.975 x1=0.47 length=0.032333 units=km normamps=152.0
new line.52881011 phases=3 bus1=80499685001996.1.2.3 bus2=80499675001996.1.2.3 r1=0.975 x1=0.47 length=0.007993 units=km normamps=152.0
new line.52881012 phases=3 bus1=80499675001996.1.2.3 bus2=80499695001996.1.2.3 r1=0.975 x1=0.47 length=0.026392 units=km normamps=152.0
new line.52881013 phases=3 bus1=80499695001996.1.2.3 bus2=80499355001996.1.2.3 r1=0.975 x1=0.47 length=0.023792 units=km normamps=152.0
new line.52881014 phases=3 bus1=80499705001996.1.2.3 bus2=80499375001996.1.2.3 r1=0.195 x1=0.4 length=0.028901 units=km normamps=419.0
new line.52881015 phases=3 bus1=80499715001996.1.2.3 bus2=80499705001996.1.2.3 r1=0.195 x1=0.4 length=0.006686 units=km normamps=419.0
new line.52881016 phases=3 bus1=80499725001996.1.2.3 bus2=80499705001996.1.2.3 r1=0.195 x1=0.4 length=0.02294 units=km normamps=419.0
new line.52881018 phases=3 bus1=80499745001996.1.2.3 bus2=84709115001996.1.2.3 r1=0.195 x1=0.4 length=0.027168 units=km normamps=419.0
new line.52881019 phases=3 bus1=80499755001996.1.2.3 bus2=80499745001996.1.2.3 r1=0.195 x1=0.4 length=0.010841 units=km normamps=419.0
new line.52881020 phases=3 bus1=80499765001996.1.2.3 bus2=80499745001996.1.2.3 r1=0.195 x1=0.4 length=0.040452 units=km normamps=419.0
new line.52881021 phases=3 bus1=80499795001996.1.2.3 bus2=89138155001996.1.2.3 r1=0.195 x1=0.4 length=0.00928 units=km normamps=419.0
new line.52881022 phases=3 bus1=80499805001996.1.2.3 bus2=80499795001996.1.2.3 r1=0.195 x1=0.4 length=0.014008 units=km normamps=419.0
new line.52881023 phases=3 bus1=80496405001996.1.2.3 bus2=80496415001996.1.2.3 r1=0.975 x1=0.47 length=0.040885 units=km normamps=152.0
new line.52881024 phases=3 bus1=80496415001996.1.2.3 bus2=80500425001996.1.2.3 r1=0.975 x1=0.47 length=0.013292 units=km normamps=152.0
new line.52881025 phases=3 bus1=80496405001996.1.2.3 bus2=80498535001996.1.2.3 r1=0.975 x1=0.47 length=0.031547 units=km normamps=152.0
new line.52881027 phases=3 bus1=80496955001996.1.2.3 bus2=80496295001996.1.2.3 r1=0.975 x1=0.47 length=0.023701 units=km normamps=152.0
new line.52881028 phases=3 bus1=80496995001996.1.2.3 bus2=80496955001996.1.2.3 r1=0.975 x1=0.47 length=0.026333 units=km normamps=152.0
new line.52881029 phases=3 bus1=80496945001996.1.2.3 bus2=80496955001996.1.2.3 r1=0.975 x1=0.47 length=0.024324 units=km normamps=152.0
new line.52881030 phases=3 bus1=80497015001996.1.2.3 bus2=80497025001996.1.2.3 r1=0.195 x1=0.4 length=0.04888 units=km normamps=419.0
new line.52881031 phases=3 bus1=80497025001996B.1.2.3 bus2=80496605001996.1.2.3 r1=0.975 x1=0.47 length=0.03887 units=km normamps=152.0
new line.52881032 phases=3 bus1=80497025001996.1.2.3 bus2=80497065001996.1.2.3 r1=0.195 x1=0.4 length=0.014503 units=km normamps=419.0
new line.52881033 phases=3 bus1=80497065001996.1.2.3 bus2=94488315001996.1.2.3 r1=0.195 x1=0.4 length=0.002989 units=km normamps=419.0
new line.52881034 phases=3 bus1=80497075001996.1.2.3 bus2=80496585001996.1.2.3 r1=0.195 x1=0.4 length=0.045442 units=km normamps=419.0
new line.52881042 phases=3 bus1=80499825001996.1.2.3 bus2=80499815001996.1.2.3 r1=0.195 x1=0.4 length=0.021321 units=km normamps=419.0
new line.52881043 phases=3 bus1=80497805001996B.1.2.3 bus2=80499825001996.1.2.3 r1=0.195 x1=0.4 length=0.082105 units=km normamps=419.0
new line.52881044 phases=3 bus1=80463665001996.1.2.3 bus2=80463655001996.1.2.3 r1=0.188 x1=0.26 length=0.035259 units=km normamps=525.0
new line.52881045 phases=3 bus1=80499795001996.1.2.3 bus2=80500445001996.1.2.3 r1=0.195 x1=0.4 length=0.014617 units=km normamps=419.0
new line.52881071 phases=3 bus1=80495115001996.1.2.3 bus2=80470055001996.1.2.3 r1=0.195 x1=0.4 length=0.055255 units=km normamps=419.0
new line.52881072 phases=3 bus1=80500055001996.1.2.3 bus2=80500065001996.1.2.3 r1=0.195 x1=0.4 length=0.033772 units=km normamps=419.0
new line.52881073 phases=3 bus1=80470055001996.1.2.3 bus2=80500065001996.1.2.3 r1=0.195 x1=0.4 length=0.021616 units=km normamps=419.0
new line.52881074 phases=3 bus1=80500075001996.1.2.3 bus2=80500055001996B.1.2.3 r1=0.195 x1=0.4 length=0.013289 units=km normamps=419.0
new line.52881075 phases=3 bus1=80500085001996.1.2.3 bus2=80500075001996.1.2.3 r1=0.195 x1=0.4 length=0.035338 units=km normamps=419.0
new line.52881076 phases=3 bus1=80500095001996.1.2.3 bus2=80500085001996.1.2.3 r1=0.195 x1=0.4 length=0.035685 units=km normamps=419.0
new line.52881077 phases=3 bus1=80500105001996.1.2.3 bus2=80500095001996.1.2.3 r1=0.195 x1=0.4 length=0.033829 units=km normamps=419.0
new line.52881078 phases=3 bus1=80500115001996.1.2.3 bus2=80500105001996.1.2.3 r1=0.195 x1=0.4 length=0.016186 units=km normamps=419.0
new line.52881080 phases=3 bus1=80500235001996.1.2.3 bus2=80497015001996.1.2.3 r1=0.195 x1=0.4 length=0.038489 units=km normamps=419.0
new line.52881096 phases=3 bus1=80499135001996.1.2.3 bus2=80496345001996.1.2.3 r1=0.195 x1=0.4 length=0.044439 units=km normamps=419.0
new line.52881128 phases=3 bus1=80463635001996.1.2.3 bus2=80463645001996.1.2.3 r1=0.188 x1=0.26 length=0.024711 units=km normamps=525.0
new line.52881132 phases=3 bus1=80471795001996.1.2.3 bus2=80444075001996.1.2.3 r1=0.188 x1=0.26 length=0.01652 units=km normamps=525.0
new line.52881133 phases=3 bus1=80463645001996.1.2.3 bus2=80463655001996.1.2.3 r1=0.188 x1=0.26 length=0.029857 units=km normamps=525.0
new line.52881134 phases=3 bus1=80463665001996.1.2.3 bus2=80463675001996.1.2.3 r1=0.188 x1=0.26 length=0.045415 units=km normamps=525.0
new line.52881135 phases=3 bus1=80463675001996.1.2.3 bus2=80459215001996.1.2.3 r1=0.188 x1=0.26 length=0.042666 units=km normamps=525.0
new line.52881157 phases=3 bus1=80500665001996.1.2.3 bus2=80500365001996.1.2.3 r1=0.188 x1=0.26 length=0.018036 units=km normamps=525.0
new line.52881159 phases=3 bus1=80498565001996.1.2.3 bus2=80498535001996.1.2.3 r1=0.975 x1=0.47 length=0.009931 units=km normamps=152.0
new line.52881160 phases=3 bus1=80498575001996.1.2.3 bus2=88951485001996.1.2.3 r1=0.975 x1=0.47 length=0.021627 units=km normamps=152.0
new line.52881161 phases=3 bus1=80498595001996.1.2.3 bus2=80498585001996.1.2.3 r1=0.975 x1=0.47 length=0.012923 units=km normamps=152.0
new line.52881162 phases=3 bus1=80498605001996.1.2.3 bus2=83143775001996.1.2.3 r1=0.975 x1=0.47 length=0.016639 units=km normamps=152.0
new line.52881163 phases=3 bus1=80498615001996.1.2.3 bus2=80498605001996.1.2.3 r1=0.975 x1=0.47 length=0.035629 units=km normamps=152.0
new line.52881165 phases=3 bus1=80498625001996.1.2.3 bus2=80498595001996.1.2.3 r1=1.551 x1=0.49 length=0.011465 units=km normamps=114.0
new line.52881166 phases=3 bus1=80498635001996.1.2.3 bus2=80498625001996.1.2.3 r1=1.551 x1=0.49 length=0.017205 units=km normamps=114.0
new line.52881167 phases=3 bus1=80498645001996.1.2.3 bus2=80498635001996.1.2.3 r1=1.551 x1=0.49 length=0.008592 units=km normamps=114.0
new line.52881168 phases=3 bus1=80498655001996.1.2.3 bus2=80498635001996.1.2.3 r1=1.551 x1=0.49 length=0.015944 units=km normamps=114.0
new line.52881169 phases=3 bus1=80498665001996.1.2.3 bus2=80498655001996.1.2.3 r1=1.551 x1=0.49 length=0.020425 units=km normamps=114.0
new line.52881174 phases=3 bus1=80484595001996B.1.2.3 bus2=80494435001996.1.2.3 r1=0.195 x1=0.4 length=0.025562 units=km normamps=419.0
new line.52881175 phases=3 bus1=80494435001996.1.2.3 bus2=80494445001996.1.2.3 r1=0.195 x1=0.4 length=0.026603 units=km normamps=419.0
new line.52881176 phases=3 bus1=80494445001996.1.2.3 bus2=94535245001996.1.2.3 r1=0.195 x1=0.4 length=0.006769 units=km normamps=419.0
new line.52881177 phases=3 bus1=80494455001996.1.2.3 bus2=80494465001996.1.2.3 r1=0.195 x1=0.4 length=0.031712 units=km normamps=419.0
new line.52881178 phases=3 bus1=80494465001996.1.2.3 bus2=80494475001996.1.2.3 r1=0.195 x1=0.4 length=0.041709 units=km normamps=419.0
new line.52881180 phases=3 bus1=80494475001996.1.2.3 bus2=80494495001996.1.2.3 r1=0.195 x1=0.4 length=0.032333 units=km normamps=419.0
new line.52881181 phases=3 bus1=80494505001996.1.2.3 bus2=80494495001996.1.2.3 r1=0.195 x1=0.4 length=0.00958 units=km normamps=419.0
new line.52881182 phases=3 bus1=80494495001996.1.2.3 bus2=80494515001996.1.2.3 r1=0.195 x1=0.4 length=0.032998 units=km normamps=419.0
new line.52881183 phases=3 bus1=80494515001996.1.2.3 bus2=80494535001996.1.2.3 r1=0.195 x1=0.4 length=0.044443 units=km normamps=419.0
new line.52881184 phases=3 bus1=80494535001996.1.2.3 bus2=80494545001996.1.2.3 r1=0.195 x1=0.4 length=0.034601 units=km normamps=419.0
new line.52881185 phases=3 bus1=80494545001996.1.2.3 bus2=80494555001996.1.2.3 r1=0.195 x1=0.4 length=0.039822 units=km normamps=419.0
new line.52881186 phases=3 bus1=80494555001996.1.2.3 bus2=80494565001996.1.2.3 r1=0.195 x1=0.4 length=0.043982 units=km normamps=419.0
new line.52881204 phases=3 bus1=80498875001996.1.2.3 bus2=80498595001996.1.2.3 r1=0.975 x1=0.47 length=0.032372 units=km normamps=152.0
new line.52881205 phases=3 bus1=80498595001996.1.2.3 bus2=80498925001996.1.2.3 r1=1.551 x1=0.49 length=0.032923 units=km normamps=114.0
new line.52881206 phases=3 bus1=80498925001996.1.2.3 bus2=80498935001996.1.2.3 r1=0.975 x1=0.47 length=0.022828 units=km normamps=152.0
new line.52881207 phases=3 bus1=80498945001996.1.2.3 bus2=80498935001996.1.2.3 r1=0.975 x1=0.47 length=0.010813 units=km normamps=152.0
new line.52881208 phases=3 bus1=80498925001996.1.2.3 bus2=80498955001996.1.2.3 r1=1.551 x1=0.49 length=0.029849 units=km normamps=114.0
new line.52881212 phases=3 bus1=80499065001996.1.2.3 bus2=93349735001996.1.2.3 r1=0.195 x1=0.4 length=0.006003 units=km normamps=419.0
new line.52881213 phases=3 bus1=80459215001996.1.2.3 bus2=80459205001996.1.2.3 r1=0.188 x1=0.26 length=0.043479 units=km normamps=525.0
new line.52881214 phases=3 bus1=80459205001996.1.2.3 bus2=80459195001996.1.2.3 r1=0.188 x1=0.26 length=0.032326 units=km normamps=525.0
new line.52881215 phases=3 bus1=80459195001996.1.2.3 bus2=80459185001996.1.2.3 r1=0.188 x1=0.26 length=0.035713 units=km normamps=525.0
new line.52881216 phases=3 bus1=80459185001996.1.2.3 bus2=80459175001996.1.2.3 r1=0.188 x1=0.26 length=0.052783 units=km normamps=525.0
new line.52881217 phases=3 bus1=80459175001996.1.2.3 bus2=80459165001996.1.2.3 r1=0.188 x1=0.26 length=0.041971 units=km normamps=525.0
new line.52881218 phases=3 bus1=80459165001996.1.2.3 bus2=80459155001996.1.2.3 r1=0.188 x1=0.26 length=0.042614 units=km normamps=525.0
new line.52881219 phases=3 bus1=80459155001996.1.2.3 bus2=80459145001996.1.2.3 r1=0.188 x1=0.26 length=0.039695 units=km normamps=525.0
new line.52881220 phases=3 bus1=80459145001996.1.2.3 bus2=80459135001996.1.2.3 r1=0.188 x1=0.26 length=0.051383 units=km normamps=525.0
new line.52881221 phases=3 bus1=80459135001996.1.2.3 bus2=80459265001996.1.2.3 r1=0.188 x1=0.26 length=0.045661 units=km normamps=525.0
new line.52881222 phases=3 bus1=80459265001996.1.2.3 bus2=80459275001996.1.2.3 r1=0.188 x1=0.26 length=0.039133 units=km normamps=525.0
new line.52881223 phases=3 bus1=80459275001996.1.2.3 bus2=80459285001996.1.2.3 r1=0.188 x1=0.26 length=0.041728 units=km normamps=525.0
new line.52881224 phases=3 bus1=80459285001996.1.2.3 bus2=80459115001996.1.2.3 r1=0.188 x1=0.26 length=0.031501 units=km normamps=525.0
new line.52881225 phases=3 bus1=80459115001996.1.2.3 bus2=80459125001996.1.2.3 r1=0.188 x1=0.26 length=0.044074 units=km normamps=525.0
new line.52881228 phases=3 bus1=80459125001996.1.2.3 bus2=80465305001996.1.2.3 r1=0.188 x1=0.26 length=0.040899 units=km normamps=525.0
new line.52881229 phases=3 bus1=80465305001996.1.2.3 bus2=80465335001996.1.2.3 r1=0.188 x1=0.26 length=0.040177 units=km normamps=525.0
new line.52881230 phases=3 bus1=80465335001996.1.2.3 bus2=80465325001996.1.2.3 r1=0.188 x1=0.26 length=0.049168 units=km normamps=525.0
new line.52881231 phases=3 bus1=80465325001996.1.2.3 bus2=80465315001996.1.2.3 r1=0.188 x1=0.26 length=0.036954 units=km normamps=525.0
new line.52881232 phases=3 bus1=80465315001996.1.2.3 bus2=80465295001996.1.2.3 r1=0.188 x1=0.26 length=0.03799 units=km normamps=525.0
new line.52881236 phases=3 bus1=80499195001996.1.2.3 bus2=80499065001996.1.2.3 r1=0.195 x1=0.4 length=0.007608 units=km normamps=419.0
new line.52881237 phases=3 bus1=80499205001996.1.2.3 bus2=80498965001996.1.2.3 r1=0.195 x1=0.4 length=0.03076 units=km normamps=419.0
new line.52881238 phases=3 bus1=80499215001996.1.2.3 bus2=94584755001996.1.2.3 r1=0.195 x1=0.4 length=0.011684 units=km normamps=419.0
new line.52881239 phases=3 bus1=80499225001996.1.2.3 bus2=80499215001996.1.2.3 r1=0.195 x1=0.4 length=0.005365 units=km normamps=419.0
new line.52881240 phases=3 bus1=80499235001996.1.2.3 bus2=80499215001996.1.2.3 r1=0.195 x1=0.4 length=0.049471 units=km normamps=419.0
new line.52881241 phases=3 bus1=80499235001996.1.2.3 bus2=80499005001996.1.2.3 r1=0.975 x1=0.47 length=0.020678 units=km normamps=152.0
new line.52881242 phases=3 bus1=80499245001996.1.2.3 bus2=80499005001996.1.2.3 r1=0.975 x1=0.47 length=0.00736 units=km normamps=152.0
new line.52881243 phases=3 bus1=80499255001996.1.2.3 bus2=80499235001996.1.2.3 r1=0.195 x1=0.4 length=0.016004 units=km normamps=419.0
new line.52881244 phases=3 bus1=80498985001996.1.2.3 bus2=80499255001996.1.2.3 r1=0.195 x1=0.4 length=0.025867 units=km normamps=419.0
new line.52881245 phases=3 bus1=80499265001996.1.2.3 bus2=80499255001996.1.2.3 r1=0.195 x1=0.4 length=0.007003 units=km normamps=419.0
new line.52881247 phases=3 bus1=80499275001996B.1.2.3 bus2=80499295001996.1.2.3 r1=0.195 x1=0.4 length=0.036988 units=km normamps=419.0
new line.52881248 phases=3 bus1=80499305001996.1.2.3 bus2=80499295001996.1.2.3 r1=0.195 x1=0.4 length=0.005209 units=km normamps=419.0
new line.52881249 phases=3 bus1=80499295001996.1.2.3 bus2=80499315001996.1.2.3 r1=0.195 x1=0.4 length=0.034374 units=km normamps=419.0
new line.52881250 phases=3 bus1=80499315001996.1.2.3 bus2=93628285001996.1.2.3 r1=0.195 x1=0.4 length=0.007682 units=km normamps=419.0
new line.52881251 phases=3 bus1=80499335001996.1.2.3 bus2=80499325001996.1.2.3 r1=0.195 x1=0.4 length=0.00472 units=km normamps=419.0
new line.52881252 phases=3 bus1=80499325001996.1.2.3 bus2=80499135001996.1.2.3 r1=0.195 x1=0.4 length=0.054075 units=km normamps=419.0
new line.52881253 phases=3 bus1=80499345001996.1.2.3 bus2=80499135001996.1.2.3 r1=0.195 x1=0.4 length=0.011819 units=km normamps=419.0
new line.52881254 phases=3 bus1=80465295001996.1.2.3 bus2=80465285001996.1.2.3 r1=0.188 x1=0.26 length=0.038928 units=km normamps=525.0
new line.52881255 phases=3 bus1=80465285001996.1.2.3 bus2=80465185001996.1.2.3 r1=0.188 x1=0.26 length=0.036954 units=km normamps=525.0
new line.52881256 phases=3 bus1=80465185001996.1.2.3 bus2=80465195001996.1.2.3 r1=0.188 x1=0.26 length=0.031749 units=km normamps=525.0
new line.52881257 phases=3 bus1=80465195001996.1.2.3 bus2=80465235001996.1.2.3 r1=0.188 x1=0.26 length=0.02628 units=km normamps=525.0
new line.52881258 phases=3 bus1=80465235001996.1.2.3 bus2=80465275001996.1.2.3 r1=0.188 x1=0.26 length=0.049602 units=km normamps=525.0
new line.52881259 phases=3 bus1=80465275001996.1.2.3 bus2=80465265001996.1.2.3 r1=0.188 x1=0.26 length=0.034977 units=km normamps=525.0
new line.52881260 phases=3 bus1=80465265001996.1.2.3 bus2=80465255001996.1.2.3 r1=0.188 x1=0.26 length=0.028512 units=km normamps=525.0
new line.52881261 phases=3 bus1=80465255001996.1.2.3 bus2=80465245001996.1.2.3 r1=0.188 x1=0.26 length=0.032738 units=km normamps=525.0
new line.52881262 phases=3 bus1=80465245001996.1.2.3 bus2=80465205001996.1.2.3 r1=0.188 x1=0.26 length=0.042711 units=km normamps=525.0
new line.52881263 phases=3 bus1=80465205001996.1.2.3 bus2=80465215001996.1.2.3 r1=0.188 x1=0.26 length=0.035435 units=km normamps=525.0
new line.52881264 phases=3 bus1=80465215001996.1.2.3 bus2=80465225001996.1.2.3 r1=0.188 x1=0.26 length=0.037955 units=km normamps=525.0
new line.52881265 phases=3 bus1=80465225001996.1.2.3 bus2=80465345001996.1.2.3 r1=0.188 x1=0.26 length=0.047436 units=km normamps=525.0
new line.52881266 phases=3 bus1=80465345001996.1.2.3 bus2=80465355001996.1.2.3 r1=0.188 x1=0.26 length=0.037782 units=km normamps=525.0
new line.52881267 phases=3 bus1=80465355001996.1.2.3 bus2=80465735001996.1.2.3 r1=0.188 x1=0.26 length=0.053545 units=km normamps=525.0
new line.52881268 phases=3 bus1=80465735001996.1.2.3 bus2=80465745001996.1.2.3 r1=0.188 x1=0.26 length=0.016958 units=km normamps=525.0
new line.52881269 phases=3 bus1=80465745001996.1.2.3 bus2=80465755001996.1.2.3 r1=0.188 x1=0.26 length=0.046595 units=km normamps=525.0
new line.52881270 phases=3 bus1=80465755001996.1.2.3 bus2=80465765001996.1.2.3 r1=0.188 x1=0.26 length=0.011305 units=km normamps=525.0
new line.52881272 phases=3 bus1=80465775001996.1.2.3 bus2=80463485001996.1.2.3 r1=0.188 x1=0.26 length=0.029279 units=km normamps=525.0
new line.52881273 phases=3 bus1=80463485001996.1.2.3 bus2=80463495001996.1.2.3 r1=0.188 x1=0.26 length=0.02628 units=km normamps=525.0
new line.52881274 phases=3 bus1=80463495001996.1.2.3 bus2=80463505001996.1.2.3 r1=0.188 x1=0.26 length=0.033495 units=km normamps=525.0
new line.52881275 phases=3 bus1=80463505001996.1.2.3 bus2=80463515001996.1.2.3 r1=0.188 x1=0.26 length=0.045574 units=km normamps=525.0
new line.52881276 phases=3 bus1=80463515001996.1.2.3 bus2=80465405001996.1.2.3 r1=0.188 x1=0.26 length=0.029728 units=km normamps=525.0
new line.52881277 phases=3 bus1=80465405001996.1.2.3 bus2=80444075001996.1.2.3 r1=0.188 x1=0.26 length=0.017005 units=km normamps=525.0
new line.52881279 phases=3 bus1=80471795001996.1.2.3 bus2=80500365001996B.1.2.3 r1=0.188 x1=0.26 length=0.027275 units=km normamps=525.0
new line.52881288 phases=3 bus1=80500085001996.1.2.3 bus2=80500375001996.1.2.3 r1=0.975 x1=0.47 length=0.01264 units=km normamps=152.0
new line.52881289 phases=3 bus1=80500375001996.1.2.3 bus2=80500385001996.1.2.3 r1=0.975 x1=0.47 length=0.026298 units=km normamps=152.0
new line.52881290 phases=3 bus1=80500385001996.1.2.3 bus2=86967395001996.1.2.3 r1=0.975 x1=0.47 length=0.007899 units=km normamps=152.0
new line.52881291 phases=3 bus1=80500395001996.1.2.3 bus2=80500405001996.1.2.3 r1=0.975 x1=0.47 length=0.019908 units=km normamps=152.0
new line.52881292 phases=3 bus1=80499885001996.1.2.3 bus2=80500435001996.1.2.3 r1=0.365 x1=0.28 length=0.017904 units=km normamps=345.0
new line.52881293 phases=3 bus1=80499645001996.1.2.3 bus2=80499635001996.1.2.3 r1=0.365 x1=0.28 length=0.029807 units=km normamps=345.0
new line.52881294 phases=3 bus1=80499635001996.1.2.3 bus2=80499625001996.1.2.3 r1=0.365 x1=0.28 length=0.026719 units=km normamps=345.0
new line.52881295 phases=3 bus1=80499895001996.1.2.3 bus2=80499885001996.1.2.3 r1=0.365 x1=0.28 length=0.032596 units=km normamps=345.0
new line.52881296 phases=3 bus1=80500445001996.1.2.3 bus2=80499815001996.1.2.3 r1=0.195 x1=0.4 length=0.025629 units=km normamps=419.0
new line.52881297 phases=3 bus1=80500445001996.1.2.3 bus2=80500455001996.1.2.3 r1=0.195 x1=0.4 length=0.022818 units=km normamps=419.0
new line.52881298 phases=3 bus1=80499625001996.1.2.3 bus2=80499895001996.1.2.3 r1=0.365 x1=0.28 length=0.023908 units=km normamps=345.0
new line.52881299 phases=3 bus1=80499625001996.1.2.3 bus2=90938825001996.1.2.3 r1=0.365 x1=0.28 length=0.035589 units=km normamps=345.0
new line.52881300 phases=3 bus1=80499605001996.1.2.3 bus2=80500485001996.1.2.3 r1=0.365 x1=0.28 length=0.010756 units=km normamps=345.0
new line.52881303 phases=3 bus1=80499365001996.1.2.3 bus2=80500465001996.1.2.3 r1=0.195 x1=0.4 length=0.01544 units=km normamps=419.0
new line.52881304 phases=3 bus1=80500465001996.1.2.3 bus2=80499375001996.1.2.3 r1=0.195 x1=0.4 length=0.009472 units=km normamps=419.0
new line.52881310 phases=3 bus1=80500545001996.1.2.3 bus2=80500555001996.1.2.3 r1=0.365 x1=0.28 length=0.024571 units=km normamps=345.0
new line.52881311 phases=3 bus1=80500555001996.1.2.3 bus2=84216185001996.1.2.3 r1=0.365 x1=0.28 length=0.013085 units=km normamps=345.0
new line.52881312 phases=3 bus1=80498575001996.1.2.3 bus2=80500575001996.1.2.3 r1=0.975 x1=0.47 length=0.010041 units=km normamps=152.0
new line.52881313 phases=3 bus1=80498875001996B.1.2.3 bus2=80500585001996.1.2.3 r1=0.975 x1=0.47 length=0.017753 units=km normamps=152.0
new line.52881314 phases=3 bus1=80500585001996.1.2.3 bus2=80500595001996.1.2.3 r1=0.975 x1=0.47 length=0.017978 units=km normamps=152.0
new line.52881315 phases=3 bus1=80500585001996.1.2.3 bus2=83086795001996.1.2.3 r1=0.975 x1=0.47 length=0.012584 units=km normamps=152.0
new line.52881316 phases=3 bus1=80498885001996.1.2.3 bus2=80500605001996.1.2.3 r1=0.236 x1=0.27 length=0.024392 units=km normamps=456.0
new line.52881317 phases=3 bus1=80500605001996.1.2.3 bus2=80500615001996.1.2.3 r1=0.236 x1=0.27 length=0.014435 units=km normamps=456.0
new line.52881319 phases=3 bus1=80498815001996B.1.2.3 bus2=80498825001996.1.2.3 r1=0.975 x1=0.47 length=0.037917 units=km normamps=152.0
new line.52881320 phases=3 bus1=80498825001996.1.2.3 bus2=80498835001996.1.2.3 r1=0.975 x1=0.47 length=0.040867 units=km normamps=152.0
new line.52881321 phases=3 bus1=80498835001996.1.2.3 bus2=80500625001996.1.2.3 r1=0.975 x1=0.47 length=0.014954 units=km normamps=152.0
new line.52881324 phases=3 bus1=80495025001996.1.2.3 bus2=80495015001996.1.2.3 r1=0.195 x1=0.4 length=0.030945 units=km normamps=419.0
new line.52881325 phases=3 bus1=80494565001996.1.2.3 bus2=80495025001996.1.2.3 r1=0.195 x1=0.4 length=0.016917 units=km normamps=419.0
new line.52881326 phases=3 bus1=80495025001996.1.2.3 bus2=80495035001996.1.2.3 r1=0.195 x1=0.4 length=0.031762 units=km normamps=419.0
new line.52881327 phases=3 bus1=80495045001996.1.2.3 bus2=80495035001996.1.2.3 r1=0.195 x1=0.4 length=0.015035 units=km normamps=419.0
new line.52881328 phases=3 bus1=80499355001996.1.2.3 bus2=80498985001996B.1.2.3 r1=1.551 x1=0.49 length=0.011659 units=km normamps=114.0
new line.52881329 phases=3 bus1=80499385001996.1.2.3 bus2=80499375001996.1.2.3 r1=0.195 x1=0.4 length=0.00736 units=km normamps=419.0
new line.52881351 phases=3 bus1=80500725001996.1.2.3 bus2=80494535001996.1.2.3 r1=0.195 x1=0.4 length=0.012134 units=km normamps=419.0
new line.52881352 phases=3 bus1=80497825001996.1.2.3 bus2=90231575001996.1.2.3 r1=0.188 x1=0.26 length=0.027069 units=km normamps=525.0
new line.52881353 phases=3 bus1=80496335001996.1.2.3 bus2=80500685001996.1.2.3 r1=0.195 x1=0.4 length=0.002245 units=km normamps=419.0
new line.52881354 phases=3 bus1=80500465001996.1.2.3 bus2=80500695001996.1.2.3 r1=0.365 x1=0.28 length=0.012687 units=km normamps=345.0
...

! 3. Chaves Seccionadoras MT
new line.SC_5271335 phases=3 bus1=80484595001996.1.2.3 bus2=80484595001996B.1.2.3 switch=y r1=1e-4 x1=1e-4 length=0.001 units=km
new line.SC_5271338 phases=3 bus1=80497805001996.1.2.3 bus2=80497805001996B.1.2.3 switch=y r1=1e-4 x1=1e-4 length=0.001 units=km
new line.SC_5271341 phases=3 bus1=80499275001996.1.2.3 bus2=80499275001996B.1.2.3 switch=y r1=1e-4 x1=1e-4 length=0.001 units=km
new line.SC_5271342 phases=3 bus1=80500365001996.1.2.3 bus2=80500365001996B.1.2.3 switch=y r1=1e-4 x1=1e-4 length=0.001 units=km
new line.SC_5271343 phases=3 bus1=80500055001996.1.2.3 bus2=80500055001996B.1.2.3 switch=y r1=1e-4 x1=1e-4 length=0.001 units=km
new line.SC_5271389 phases=3 bus1=80498985001996.1.2.3 bus2=80498985001996B.1.2.3 switch=y r1=1e-4 x1=1e-4 length=0.001 units=km
new line.SC_5271393 phases=3 bus1=80496575001996.1.2.3 bus2=80496575001996B.1.2.3 switch=y r1=1e-4 x1=1e-4 length=0.001 units=km
new line.SC_5271401 phases=3 bus1=80497025001996.1.2.3 bus2=80497025001996B.1.2.3 switch=y r1=1e-4 x1=1e-4 length=0.001 units=km
new line.SC_5299131 phases=3 bus1=80498585001996.1.2.3 bus2=80498585001996B.1.2.3 switch=y r1=1e-4 x1=1e-4 length=0.001 units=km
new line.SC_5337835 phases=3 bus1=80498765001996.1.2.3 bus2=80498765001996B.1.2.3 switch=y r1=1e-4 x1=1e-4 length=0.001 units=km
new line.SC_5339094 phases=3 bus1=80499765001996.1.2.3 bus2=80499765001996B.1.2.3 switch=y r1=1e-4 x1=1e-4 length=0.001 units=km
new line.SC_5446002 phases=3 bus1=80485225001996.1.2.3 bus2=80485225001996B.1.2.3 switch=y r1=1e-4 x1=1e-4 length=0.001 units=km
new line.SC_5502487 phases=3 bus1=80538155001996.1.2.3 bus2=80538155001996B.1.2.3 switch=y r1=1e-4 x1=1e-4 length=0.001 units=km
new line.SC_5551397 phases=3 bus1=90147955001996.1.2.3 bus2=90147955001996B.1.2.3 switch=y r1=1e-4 x1=1e-4 length=0.001 units=km
new line.SC_5575465 phases=3 bus1=90883725001996.1.2.3 bus2=90883725001996B.1.2.3 switch=y r1=1e-4 x1=1e-4 length=0.001 units=km
new line.SC_5578429 phases=3 bus1=90964155001996.1.2.3 bus2=90964155001996B.1.2.3 switch=y r1=1e-4 x1=1e-4 length=0.001 units=km
new line.SC_5578431 phases=3 bus1=90964185001996.1.2.3 bus2=90964185001996B.1.2.3 switch=y r1=1e-4 x1=1e-4 length=0.001 units=km
open line.SC_5578431 1
new line.SC_5584276 phases=3 bus1=80495105001996.1.2.3 bus2=80495105001996B.1.2.3 switch=y r1=1e-4 x1=1e-4 length=0.001 units=km
new line.SC_5584277 phases=3 bus1=91088425001996.1.2.3 bus2=91088425001996B.1.2.3 switch=y r1=1e-4 x1=1e-4 length=0.001 units=km
new line.SC_5584278 phases=3 bus1=91088485001996.1.2.3 bus2=91088485001996B.1.2.3 switch=y r1=1e-4 x1=1e-4 length=0.001 units=km
open line.SC_5584278 1
new line.SC_5584279 phases=3 bus1=91088475001996.1.2.3 bus2=91088475001996B.1.2.3 switch=y r1=1e-4 x1=1e-4 length=0.001 units=km
new line.SC_5585232 phases=3 bus1=80484605001996.1.2.3 bus2=80484605001996B.1.2.3 switch=y r1=1e-4 x1=1e-4 length=0.001 units=km
open line.SC_5585232 1
new line.SC_5587893 phases=3 bus1=91107015001996.1.2.3 bus2=91107015001996B.1.2.3 switch=y r1=1e-4 x1=1e-4 length=0.001 units=km
new line.SC_5614250 phases=3 bus1=80498875001996.1.2.3 bus2=80498875001996B.1.2.3 switch=y r1=1e-4 x1=1e-4 length=0.001 units=km
new line.SC_5614251 phases=3 bus1=80498815001996.1.2.3 bus2=80498815001996B.1.2.3 switch=y r1=1e-4 x1=1e-4 length=0.001 units=km
new line.SC_5653994 phases=3 bus1=93349975001996.1.2.3 bus2=93349975001996B.1.2.3 switch=y r1=1e-4 x1=1e-4 length=0.001 units=km
open line.SC_5653994 1
new line.SC_5653995 phases=3 bus1=93349935001996.1.2.3 bus2=93349935001996B.1.2.3 switch=y r1=1e-4 x1=1e-4 length=0.001 units=km
open line.SC_5653995 1
new line.SC_5656749 phases=3 bus1=93440145001996.1.2.3 bus2=93440145001996B.1.2.3 switch=y r1=1e-4 x1=1e-4 length=0.001 units=km
open line.SC_5656749 1
new line.SC_5656750 phases=3 bus1=88646935001996.1.2.3 bus2=88646935001996B.1.2.3 switch=y r1=1e-4 x1=1e-4 length=0.001 units=km
new line.SC_5664695 phases=3 bus1=93628275001996.1.2.3 bus2=93628275001996B.1.2.3 switch=y r1=1e-4 x1=1e-4 length=0.001 units=km
new line.SC_5664696 phases=3 bus1=93628325001996.1.2.3 bus2=93628325001996B.1.2.3 switch=y r1=1e-4 x1=1e-4 length=0.001 units=km
open line.SC_5664696 1
new line.SC_5693934 phases=3 bus1=94434595001996.1.2.3 bus2=94434595001996B.1.2.3 switch=y r1=1e-4 x1=1e-4 length=0.001 units=km
open line.SC_5693934 1
new line.SC_5697548 phases=3 bus1=94488295001996.1.2.3 bus2=94488295001996B.1.2.3 switch=y r1=1e-4 x1=1e-4 length=0.001 units=km
new line.SC_5697549 phases=3 bus1=94488325001996.1.2.3 bus2=94488325001996B.1.2.3 switch=y r1=1e-4 x1=1e-4 length=0.001 units=km
open line.SC_5697549 1
new line.SC_5700648 phases=3 bus1=94535215001996.1.2.3 bus2=94535215001996B.1.2.3 switch=y r1=1e-4 x1=1e-4 length=0.001 units=km
new line.SC_5700659 phases=3 bus1=94535235001996.1.2.3 bus2=94535235001996B.1.2.3 switch=y r1=1e-4 x1=1e-4 length=0.001 units=km
open line.SC_5700659 1
new line.SC_5702018 phases=3 bus1=94563175001996.1.2.3 bus2=94563175001996B.1.2.3 switch=y r1=1e-4 x1=1e-4 length=0.001 units=km
open line.SC_5702018 1
new line.SC_5702019 phases=3 bus1=94562975001996.1.2.3 bus2=94562975001996B.1.2.3 switch=y r1=1e-4 x1=1e-4 length=0.001 units=km
open line.SC_5702019 1
new line.SC_5702070 phases=3 bus1=94563145001996.1.2.3 bus2=94563145001996B.1.2.3 switch=y r1=1e-4 x1=1e-4 length=0.001 units=km
new line.SC_5702071 phases=3 bus1=90499045001996.1.2.3 bus2=90499045001996B.1.2.3 switch=y r1=1e-4 x1=1e-4 length=0.001 units=km
new line.SC_5703622 phases=3 bus1=94585165001996.1.2.3 bus2=94585165001996B.1.2.3 switch=y r1=1e-4 x1=1e-4 length=0.001 units=km
new line.SC_5703623 phases=3 bus1=94585195001996.1.2.3 bus2=94585195001996B.1.2.3 switch=y r1=1e-4 x1=1e-4 length=0.001 units=km
open line.SC_5703623 1
new line.SC_5739656 phases=3 bus1=96014465001996.1.2.3 bus2=96014465001996B.1.2.3 switch=y r1=1e-4 x1=1e-4 length=0.001 units=km
open line.SC_5739656 1
new line.SC_5743289 phases=3 bus1=96162215001996.1.2.3 bus2=96162215001996B.1.2.3 switch=y r1=1e-4 x1=1e-4 length=0.001 units=km
open line.SC_5743289 1
new line.SC_SA0002834 phases=3 bus1=SA0002834.1.2.3 bus2=SA0002834B.1.2.3 switch=y r1=1e-4 x1=1e-4 length=0.001 units=km
new line.SC_SA0002833 phases=3 bus1=SA0002833.1.2.3 bus2=SA0002833B.1.2.3 switch=y r1=1e-4 x1=1e-4 length=0.001 units=km
new line.SC_DA0000432 phases=3 bus1=I888888315425001996.1.2.3 bus2=I888888315425001996B.1.2.3 switch=y r1=1e-4 x1=1e-4 length=0.001 units=km

! 5. Transformadores MT/BT de Distribuicao
new transformer.UNTRMT_5271347 phases=3 windings=2 %r=1.15 xhl=5.89 kva=1750.0
~ wdg=1 bus=80485285001996.1.2.3 conn=delta kv=13.8
~ wdg=2 bus=80485285271347.1.2.3.0 conn=wye kv=0.38

new transformer.UNTRMT_5271347_2 phases=3 windings=2 %r=1.07 xhl=5.9 kva=1750.0
~ wdg=1 bus=80485285001996.1.2.3 conn=delta kv=13.8
~ wdg=2 bus=80485285271347_2.1.2.3.0 conn=wye kv=0.38

new transformer.UNTRMT_5271347_3 phases=3 windings=2 %r=1.15 xhl=5.89 kva=1750.0
~ wdg=1 bus=80485285001996.1.2.3 conn=delta kv=13.8
~ wdg=2 bus=80485285271347_3.1.2.3.0 conn=wye kv=0.38

new transformer.UNTRMT_5271357 phases=3 windings=2 %r=1.25 xhl=4.32 kva=300.0
~ wdg=1 bus=80500455001996.1.2.3 conn=delta kv=13.8
~ wdg=2 bus=80500455271357.1.2.3.0 conn=wye kv=0.38

new transformer.UNTRMT_5271359 phases=3 windings=2 %r=1.55 xhl=3.14 kva=112.0
~ wdg=1 bus=80500595001996.1.2.3 conn=delta kv=13.8
~ wdg=2 bus=80500595271359.1.2.3.0 conn=wye kv=0.38

new transformer.UNTRMT_5271361 phases=3 windings=2 %r=1.55 xhl=3.14 kva=75.0
~ wdg=1 bus=80496995001996.1.2.3 conn=delta kv=13.8
~ wdg=2 bus=80496995271361.1.2.3.0 conn=wye kv=0.38

new transformer.UNTRMT_5271364 phases=3 windings=2 %r=1.55 xhl=3.14 kva=75.0
~ wdg=1 bus=80494505001996.1.2.3 conn=delta kv=13.8
~ wdg=2 bus=80494505271364.1.2.3.0 conn=wye kv=0.38

new transformer.UNTRMT_5271365 phases=3 windings=2 %r=1.25 xhl=4.32 kva=300.0
~ wdg=1 bus=80499195001996.1.2.3 conn=delta kv=13.8
~ wdg=2 bus=80499195271365.1.2.3.0 conn=wye kv=0.38

new transformer.UNTRMT_5271367 phases=3 windings=2 %r=1.25 xhl=4.32 kva=300.0
~ wdg=1 bus=80499345001996.1.2.3 conn=delta kv=13.8
~ wdg=2 bus=80499345271367.1.2.3.0 conn=wye kv=0.38

new transformer.UNTRMT_5271368 phases=3 windings=2 %r=1.15 xhl=5.89 kva=112.0
~ wdg=1 bus=80500405001996.1.2.3 conn=delta kv=13.8
~ wdg=2 bus=80500405271368.1.2.3.0 conn=wye kv=0.38

new transformer.UNTRMT_5271429 phases=3 windings=2 %r=1.46 xhl=3.18 kva=112.0
~ wdg=1 bus=80499715001996.1.2.3 conn=delta kv=13.8
~ wdg=2 bus=80499715271429.1.2.3.0 conn=wye kv=0.38

new transformer.UNTRMT_5271430 phases=3 windings=2 %r=1.46 xhl=3.18 kva=112.0
~ wdg=1 bus=84709115001996.1.2.3 conn=delta kv=13.8
~ wdg=2 bus=84709115271430.1.2.3.0 conn=wye kv=0.38

new transformer.UNTRMT_5271431 phases=3 windings=2 %r=1.46 xhl=3.18 kva=112.0
~ wdg=1 bus=80499755001996.1.2.3 conn=delta kv=13.8
~ wdg=2 bus=80499755271431.1.2.3.0 conn=wye kv=0.38

new transformer.UNTRMT_5271432 phases=3 windings=2 %r=1.3 xhl=4.31 kva=225.0
~ wdg=1 bus=80500485001996.1.2.3 conn=delta kv=13.8
~ wdg=2 bus=80500485271432.1.2.3.0 conn=wye kv=0.38

new transformer.UNTRMT_5271433 phases=3 windings=2 %r=1.39 xhl=3.21 kva=150.0
~ wdg=1 bus=80500435001996.1.2.3 conn=delta kv=13.8
~ wdg=2 bus=80500435271433.1.2.3.0 conn=wye kv=0.38

new transformer.UNTRMT_5271434 phases=3 windings=2 %r=1.46 xhl=3.18 kva=112.0
~ wdg=1 bus=80499965001996.1.2.3 conn=delta kv=13.8
~ wdg=2 bus=80499965271434.1.2.3.0 conn=wye kv=0.38

new transformer.UNTRMT_5271435 phases=3 windings=2 %r=1.3 xhl=4.31 kva=225.0
~ wdg=1 bus=80500475001996.1.2.3 conn=delta kv=13.8
~ wdg=2 bus=80500475271435.1.2.3.0 conn=wye kv=0.38

new transformer.UNTRMT_5271436 phases=3 windings=2 %r=1.46 xhl=3.18 kva=112.0
~ wdg=1 bus=80498565001996.1.2.3 conn=delta kv=13.8
~ wdg=2 bus=80498565271436.1.2.3.0 conn=wye kv=0.38

new transformer.UNTRMT_5271437 phases=3 windings=2 %r=1.3 xhl=4.31 kva=225.0
~ wdg=1 bus=80498645001996.1.2.3 conn=delta kv=13.8
~ wdg=2 bus=80498645271437.1.2.3.0 conn=wye kv=0.38

new transformer.UNTRMT_5271438 phases=3 windings=2 %r=1.39 xhl=3.21 kva=150.0
~ wdg=1 bus=80498655001996.1.2.3 conn=delta kv=13.8
~ wdg=2 bus=80498655271438.1.2.3.0 conn=wye kv=0.38

new transformer.UNTRMT_5271439 phases=3 windings=2 %r=1.55 xhl=3.14 kva=75.0
~ wdg=1 bus=80498945001996.1.2.3 conn=delta kv=13.8
~ wdg=2 bus=80498945271439.1.2.3.0 conn=wye kv=0.38

new transformer.UNTRMT_5271440 phases=3 windings=2 %r=1.3 xhl=4.31 kva=225.0
~ wdg=1 bus=80500575001996.1.2.3 conn=delta kv=13.8
~ wdg=2 bus=80500575271440.1.2.3.0 conn=wye kv=0.38

new transformer.UNTRMT_5271441 phases=3 windings=2 %r=1.46 xhl=3.18 kva=112.0
~ wdg=1 bus=80500615001996.1.2.3 conn=delta kv=13.8
~ wdg=2 bus=80500615271441.1.2.3.0 conn=wye kv=0.38

new transformer.UNTRMT_5271442 phases=3 windings=2 %r=1.39 xhl=3.21 kva=150.0
~ wdg=1 bus=80500625001996.1.2.3 conn=delta kv=13.8
~ wdg=2 bus=80500625271442.1.2.3.0 conn=wye kv=0.38

new transformer.UNTRMT_5271443 phases=3 windings=2 %r=1.46 xhl=3.18 kva=112.0
~ wdg=1 bus=80496365001996.1.2.3 conn=delta kv=13.8
~ wdg=2 bus=80496365271443.1.2.3.0 conn=wye kv=0.38

new transformer.UNTRMT_5271444 phases=3 windings=2 %r=1.55 xhl=3.14 kva=75.0
~ wdg=1 bus=80496555001996.1.2.3 conn=delta kv=13.8
~ wdg=2 bus=80496555271444.1.2.3.0 conn=wye kv=0.38

new transformer.UNTRMT_5271445 phases=3 windings=2 %r=1.39 xhl=3.21 kva=150.0
~ wdg=1 bus=80496635001996.1.2.3 conn=delta kv=13.8
~ wdg=2 bus=80496635271445.1.2.3.0 conn=wye kv=0.38

new transformer.UNTRMT_5271456 phases=3 windings=2 %r=1.39 xhl=3.21 kva=150.0
~ wdg=1 bus=80499205001996.1.2.3 conn=delta kv=13.8
~ wdg=2 bus=80499205271456.1.2.3.0 conn=wye kv=0.38

new transformer.UNTRMT_5271457 phases=3 windings=2 %r=1.68 xhl=3.07 kva=45.0
~ wdg=1 bus=80499225001996.1.2.3 conn=delta kv=13.8
~ wdg=2 bus=80499225271457.1.2.3.0 conn=wye kv=0.38

new transformer.UNTRMT_5271458 phases=3 windings=2 %r=1.68 xhl=3.07 kva=45.0
~ wdg=1 bus=80499265001996.1.2.3 conn=delta kv=13.8
~ wdg=2 bus=80499265271458.1.2.3.0 conn=wye kv=0.38

new transformer.UNTRMT_5271459 phases=3 windings=2 %r=1.39 xhl=3.21 kva=150.0
~ wdg=1 bus=80499305001996.1.2.3 conn=delta kv=13.8
~ wdg=2 bus=80499305271459.1.2.3.0 conn=wye kv=0.38

new transformer.UNTRMT_5271460 phases=3 windings=2 %r=1.46 xhl=3.18 kva=112.0
~ wdg=1 bus=80499335001996.1.2.3 conn=delta kv=13.8
~ wdg=2 bus=80499335271460.1.2.3.0 conn=wye kv=0.38

new transformer.UNTRMT_5271461 phases=3 windings=2 %r=1.46 xhl=3.18 kva=112.0
~ wdg=1 bus=80496945001996.1.2.3 conn=delta kv=13.8
~ wdg=2 bus=80496945271461.1.2.3.0 conn=wye kv=0.38

new transformer.UNTRMT_5271462 phases=3 windings=2 %r=1.55 xhl=3.14 kva=75.0
~ wdg=1 bus=80497015001996.1.2.3 conn=delta kv=13.8
~ wdg=2 bus=80497015271462.1.2.3.0 conn=wye kv=0.38

new transformer.UNTRMT_5271474 phases=3 windings=2 %r=1.46 xhl=3.18 kva=112.0
~ wdg=1 bus=80494555001996.1.2.3 conn=delta kv=13.8
~ wdg=2 bus=80494555271474.1.2.3.0 conn=wye kv=0.38

new transformer.UNTRMT_5271475 phases=3 windings=2 %r=1.46 xhl=3.18 kva=112.0
~ wdg=1 bus=80499815001996.1.2.3 conn=delta kv=13.8
~ wdg=2 bus=80499815271475.1.2.3.0 conn=wye kv=0.38

new transformer.UNTRMT_5271477 phases=3 windings=2 %r=1.39 xhl=3.21 kva=150.0
~ wdg=1 bus=80500685001996.1.2.3 conn=delta kv=13.8
~ wdg=2 bus=80500685271477.1.2.3.0 conn=wye kv=0.38

new transformer.UNTRMT_5271479 phases=3 windings=2 %r=1.46 xhl=3.18 kva=112.0
~ wdg=1 bus=80500715001996.1.2.3 conn=delta kv=13.8
~ wdg=2 bus=80500715271479.1.2.3.0 conn=wye kv=0.38

new transformer.UNTRMT_5271499 phases=3 windings=2 %r=1.46 xhl=3.18 kva=112.0
~ wdg=1 bus=80499385001996.1.2.3 conn=delta kv=13.8
~ wdg=2 bus=80499385271499.1.2.3.0 conn=wye kv=0.38

new transformer.UNTRMT_5271500 phases=3 windings=2 %r=1.55 xhl=3.14 kva=75.0
~ wdg=1 bus=80499685001996.1.2.3 conn=delta kv=13.8
~ wdg=2 bus=80499685271500.1.2.3.0 conn=wye kv=0.38

new transformer.UNTRMT_5299013 phases=3 windings=2 %r=1.39 xhl=3.21 kva=150.0
~ wdg=1 bus=83086905001996.1.2.3 conn=delta kv=13.8
~ wdg=2 bus=83086905299013.1.2.3.0 conn=wye kv=0.38

new transformer.UNTRMT_5300077 phases=3 windings=2 %r=1.15 xhl=5.89 kva=500.0
~ wdg=1 bus=83143805001996.1.2.3 conn=delta kv=13.8
~ wdg=2 bus=83143805300077.1.2.3.0 conn=wye kv=0.38

new transformer.UNTRMT_5302749 phases=3 windings=2 %r=1.39 xhl=3.21 kva=150.0
~ wdg=1 bus=83278685001996.1.2.3 conn=delta kv=13.8
~ wdg=2 bus=83278685302749-358.1.2.3.0 conn=wye kv=0.38

new transformer.UNTRMT_5319300 phases=3 windings=2 %r=1.3 xhl=4.31 kva=225.0
~ wdg=1 bus=84216195001996.1.2.3 conn=delta kv=13.8
~ wdg=2 bus=84216195319300.1.2.3.0 conn=wye kv=0.38

new transformer.UNTRMT_5326701 phases=3 windings=2 %r=1.3 xhl=4.31 kva=225.0
~ wdg=1 bus=80499425001996.1.2.3 conn=delta kv=13.8
~ wdg=2 bus=80499425326701.1.2.3.0 conn=wye kv=0.38

new transformer.UNTRMT_5328786 phases=3 windings=2 %r=1.39 xhl=3.21 kva=150.0
~ wdg=1 bus=84867215001996.1.2.3 conn=delta kv=13.8
~ wdg=2 bus=84867215328786.1.2.3.0 conn=wye kv=0.38

new transformer.UNTRMT_5332647 phases=3 windings=2 %r=1.3 xhl=4.31 kva=225.0
~ wdg=1 bus=85090425001996.1.2.3 conn=delta kv=13.8
~ wdg=2 bus=85090425332647.1.2.3.0 conn=wye kv=0.38

new transformer.UNTRMT_5333973 phases=3 windings=2 %r=1.25 xhl=4.32 kva=300.0
~ wdg=1 bus=85174475001996.1.2.3 conn=delta kv=13.8
~ wdg=2 bus=85174475333973.1.2.3.0 conn=wye kv=0.38

new transformer.UNTRMT_5335054 phases=3 windings=2 %r=1.46 xhl=3.18 kva=112.0
~ wdg=1 bus=94582225001996.1.2.3 conn=delta kv=13.8
~ wdg=2 bus=94582225335054.1.2.3.0 conn=wye kv=0.38

new transformer.UNTRMT_5335160 phases=3 windings=2 %r=1.46 xhl=3.18 kva=112.0
~ wdg=1 bus=80500425001996.1.2.3 conn=delta kv=13.8
~ wdg=2 bus=80500425335160.1.2.3.0 conn=wye kv=0.38

new transformer.UNTRMT_5337831 phases=3 windings=2 %r=1.46 xhl=3.18 kva=112.0
~ wdg=1 bus=85532455001996.1.2.3 conn=delta kv=13.8
~ wdg=2 bus=85532455337831.1.2.3.0 conn=wye kv=0.38

new transformer.UNTRMT_5339057 phases=3 windings=2 %r=1.3 xhl=4.31 kva=225.0
~ wdg=1 bus=85627605001996.1.2.3 conn=delta kv=13.8
~ wdg=2 bus=85627605339057.1.2.3.0 conn=wye kv=0.38

new transformer.UNTRMT_5340213 phases=3 windings=2 %r=1.46 xhl=3.18 kva=112.0
~ wdg=1 bus=85711565001996.1.2.3 conn=delta kv=13.8
~ wdg=2 bus=85711565340213.1.2.3.0 conn=wye kv=0.38

new transformer.UNTRMT_5431678 phases=3 windings=2 %r=1.46 xhl=3.18 kva=112.0
~ wdg=1 bus=86310755001996.1.2.3 conn=delta kv=13.8
~ wdg=2 bus=86310755431678.1.2.3.0 conn=wye kv=0.38

new transformer.UNTRMT_5432499 phases=3 windings=2 %r=1.3 xhl=4.31 kva=225.0
~ wdg=1 bus=86356115001996.1.2.3 conn=delta kv=13.8
~ wdg=2 bus=86356115432499.1.2.3.0 conn=wye kv=0.38

new transformer.UNTRMT_5444989 phases=3 windings=2 %r=1.25 xhl=4.32 kva=300.0
~ wdg=1 bus=86948845001996.1.2.3 conn=delta kv=13.8
~ wdg=2 bus=86948845444989.1.2.3.0 conn=wye kv=0.38

new transformer.UNTRMT_5446003 phases=3 windings=2 %r=1.39 xhl=3.21 kva=150.0
~ wdg=1 bus=80485235001996.1.2.3 conn=delta kv=13.8
~ wdg=2 bus=80485235446003.1.2.3.0 conn=wye kv=0.38

new transformer.UNTRMT_5455723 phases=3 windings=2 %r=1.39 xhl=3.21 kva=150.0
~ wdg=1 bus=87325905001996.1.2.3 conn=delta kv=13.8
~ wdg=2 bus=87325905455723.1.2.3.0 conn=wye kv=0.38

new transformer.UNTRMT_5458816 phases=3 windings=2 %r=1.25 xhl=4.32 kva=300.0
~ wdg=1 bus=87412455001996.1.2.3 conn=delta kv=13.8
~ wdg=2 bus=87412455458816.1.2.3.0 conn=wye kv=0.38

new transformer.UNTRMT_5460776 phases=3 windings=2 %r=1.25 xhl=4.32 kva=300.0
~ wdg=1 bus=87477055001996.1.2.3 conn=delta kv=13.8
~ wdg=2 bus=87477055460776.1.2.3.0 conn=wye kv=0.38

new transformer.UNTRMT_5465305 phases=3 windings=2 %r=1.25 xhl=4.32 kva=300.0
~ wdg=1 bus=87572375001996.1.2.3 conn=delta kv=13.8
~ wdg=2 bus=87572375465305.1.2.3.0 conn=wye kv=0.38

new transformer.UNTRMT_5473419 phases=3 windings=2 %r=1.02 xhl=5.91 kva=1000.0
~ wdg=1 bus=87798135001996.1.2.3 conn=delta kv=13.8
~ wdg=2 bus=87798135473419.1.2.3.0 conn=wye kv=0.38

new transformer.UNTRMT_5476945 phases=3 windings=2 %r=1.39 xhl=3.21 kva=150.0
~ wdg=1 bus=87894915001996.1.2.3 conn=delta kv=13.8
~ wdg=2 bus=87894915476945.1.2.3.0 conn=wye kv=0.38

new transformer.UNTRMT_5482129 phases=3 windings=2 %r=1.25 xhl=4.32 kva=300.0
~ wdg=1 bus=88048445001996.1.2.3 conn=delta kv=13.8
~ wdg=2 bus=88048445482129.1.2.3.0 conn=wye kv=0.38

new transformer.UNTRMT_5483295 phases=3 windings=2 %r=1.55 xhl=3.14 kva=75.0
~ wdg=1 bus=80484625001996.1.2.3 conn=delta kv=13.8
~ wdg=2 bus=80484625483295.1.2.3.0 conn=wye kv=0.38

new transformer.UNTRMT_5489835 phases=3 windings=2 %r=1.25 xhl=4.32 kva=300.0
~ wdg=1 bus=88234795001996.1.2.3 conn=delta kv=13.8
~ wdg=2 bus=88234795489835.1.2.3.0 conn=wye kv=0.38

new transformer.UNTRMT_5490692 phases=3 windings=2 %r=1.3 xhl=4.31 kva=225.0
~ wdg=1 bus=88263075001996.1.2.3 conn=delta kv=13.8
~ wdg=2 bus=88263075490692.1.2.3.0 conn=wye kv=0.38

new transformer.UNTRMT_5491626 phases=3 windings=2 %r=1.46 xhl=3.18 kva=112.0
~ wdg=1 bus=88291745001996.1.2.3 conn=delta kv=13.8
~ wdg=2 bus=88291745491626.1.2.3.0 conn=wye kv=0.38

new transformer.UNTRMT_5491628 phases=3 windings=2 %r=1.46 xhl=3.18 kva=112.0
~ wdg=1 bus=88291735001996.1.2.3 conn=delta kv=13.8
~ wdg=2 bus=88291735491628.1.2.3.0 conn=wye kv=0.38

new transformer.UNTRMT_5503237 phases=3 windings=2 %r=1.3 xhl=4.31 kva=225.0
~ wdg=1 bus=80498855001996.1.2.3 conn=delta kv=13.8
~ wdg=2 bus=80498855503237.1.2.3.0 conn=wye kv=0.38

new transformer.UNTRMT_5511723 phases=3 windings=2 %r=1.39 xhl=3.21 kva=150.0
~ wdg=1 bus=88930745001996.1.2.3 conn=delta kv=13.8
~ wdg=2 bus=88930745511723.1.2.3.0 conn=wye kv=0.38

new transformer.UNTRMT_5512405 phases=3 windings=2 %r=1.3 xhl=4.31 kva=225.0
~ wdg=1 bus=88951235001996.1.2.3 conn=delta kv=13.8
~ wdg=2 bus=88951235512405.1.2.3.0 conn=wye kv=0.38

new transformer.UNTRMT_5518580 phases=3 windings=2 %r=1.3 xhl=4.31 kva=225.0
~ wdg=1 bus=89138165001996.1.2.3 conn=delta kv=13.8
~ wdg=2 bus=89138165518580.1.2.3.0 conn=wye kv=0.38

new transformer.UNTRMT_5521346 phases=3 windings=2 %r=1.39 xhl=3.21 kva=150.0
~ wdg=1 bus=89229525001996.1.2.3 conn=delta kv=13.8
~ wdg=2 bus=89229525521346.1.2.3.0 conn=wye kv=0.38

new transformer.UNTRMT_5527496 phases=3 windings=2 %r=1.3 xhl=4.31 kva=225.0
~ wdg=1 bus=89410515001996.1.2.3 conn=delta kv=13.8
~ wdg=2 bus=89410515527496.1.2.3.0 conn=wye kv=0.38

new transformer.UNTRMT_5534674 phases=3 windings=2 %r=1.3 xhl=4.31 kva=225.0
~ wdg=1 bus=89651885001996.1.2.3 conn=delta kv=13.8
~ wdg=2 bus=89651885534674.1.2.3.0 conn=wye kv=0.38

new transformer.UNTRMT_5551398 phases=3 windings=2 %r=0.95 xhl=5.92 kva=1500.0
~ wdg=1 bus=90148065001996.1.2.3 conn=delta kv=13.8
~ wdg=2 bus=90148065551398.1.2.3.0 conn=wye kv=0.38

new transformer.UNTRMT_5551399 phases=3 windings=2 %r=0.91 xhl=5.93 kva=75.0
~ wdg=1 bus=90148075001996.1.2.3 conn=delta kv=13.8
~ wdg=2 bus=90148075551399.1.2.3.0 conn=wye kv=0.38

new transformer.UNTRMT_5564699 phases=3 windings=2 %r=1.39 xhl=3.21 kva=150.0
~ wdg=1 bus=90537955001996.1.2.3 conn=delta kv=13.8
~ wdg=2 bus=90537955564699.1.2.3.0 conn=wye kv=0.38

new transformer.UNTRMT_5564702 phases=3 windings=2 %r=1.39 xhl=3.21 kva=150.0
~ wdg=1 bus=90537975001996.1.2.3 conn=delta kv=13.8
~ wdg=2 bus=90537975564702.1.2.3.0 conn=wye kv=0.38

new transformer.UNTRMT_5564703 phases=3 windings=2 %r=1.25 xhl=4.32 kva=300.0
~ wdg=1 bus=90538035001996.1.2.3 conn=delta kv=13.8
~ wdg=2 bus=90538035564703.1.2.3.0 conn=wye kv=0.38

new transformer.UNTRMT_5566278 phases=3 windings=2 %r=1.25 xhl=4.32 kva=300.0
~ wdg=1 bus=90590115001996.1.2.3 conn=delta kv=13.8
~ wdg=2 bus=90590115566278.1.2.3.0 conn=wye kv=0.38

new transformer.UNTRMT_5566364 phases=3 windings=2 %r=1.25 xhl=4.32 kva=300.0
~ wdg=1 bus=93792665001996.1.2.3 conn=delta kv=13.8
~ wdg=2 bus=93792665566364.1.2.3.0 conn=wye kv=0.38

new transformer.UNTRMT_5575467 phases=3 windings=2 %r=1.02 xhl=5.91 kva=112.0
~ wdg=1 bus=90883745001996.1.2.3 conn=delta kv=13.8
~ wdg=2 bus=90883745575467.1.2.3.0 conn=wye kv=0.38

new transformer.UNTRMT_5575468 phases=3 windings=2 %r=1.02 xhl=5.91 kva=75.0
~ wdg=1 bus=90883735001996.1.2.3 conn=delta kv=13.8
~ wdg=2 bus=90883735575468.1.2.3.0 conn=wye kv=0.38

new transformer.UNTRMT_5577373 phases=3 windings=2 %r=1.3 xhl=4.31 kva=225.0
~ wdg=1 bus=90933955001996.1.2.3 conn=delta kv=13.8
~ wdg=2 bus=90933955577373.1.2.3.0 conn=wye kv=0.38

new transformer.UNTRMT_5577375 phases=3 windings=2 %r=1.39 xhl=3.21 kva=150.0
~ wdg=1 bus=90933975001996.1.2.3 conn=delta kv=13.8
~ wdg=2 bus=90933975577375.1.2.3.0 conn=wye kv=0.38

new transformer.UNTRMT_5585257 phases=3 windings=2 %r=1.3 xhl=4.31 kva=225.0
~ wdg=1 bus=94581815001996.1.2.3 conn=delta kv=13.8
~ wdg=2 bus=94581815585257.1.2.3.0 conn=wye kv=0.38

new transformer.UNTRMT_5798075 phases=3 windings=2 %r=1.55 xhl=3.14 kva=75.0
~ wdg=1 bus=98601805001996.1.2.3 conn=delta kv=13.8
~ wdg=2 bus=98601805798075.1.2.3.0 conn=wye kv=0.38

! 6. Linhas de Baixa Tensao (BT)
new line.52881833 phases=3 bus1=80498535335160.1.2.3.0 bus2=80496405335160.1.2.3.0 r1=0.613 x1=0.45 length=0.031547 units=km normamps=203.0
new line.52881839 phases=3 bus1=80498615335160.1.2.3.0 bus2=80498605335160.1.2.3.0 r1=0.613 x1=0.45 length=0.03563 units=km normamps=203.0
new line.52882200 phases=3 bus1=80466585446003.1.2.3.0 bus2=80466605446003.1.2.3.0 r1=0.991 x1=0.1 length=0.018791 units=km normamps=100.0
new line.52882213 phases=3 bus1=80485155446003.1.2.3.0 bus2=80493195446003.1.2.3.0 r1=0.975 x1=0.47 length=0.034425 units=km normamps=152.0
new line.52882408 phases=3 bus1=80499605271434.1.2.3.0 bus2=80499615271434.1.2.3.0 r1=1.551 x1=0.49 length=0.032893 units=km normamps=114.0
new line.52882409 phases=3 bus1=80498865271434.1.2.3.0 bus2=80499615271434.1.2.3.0 r1=0.975 x1=0.47 length=0.010418 units=km normamps=152.0
new line.52882415 phases=1 bus1=80499855271434.1.0 bus2=80499845271434.1.0 r1=0.975 x1=0.47 length=0.042132 units=km normamps=152.0
new line.52882464 phases=3 bus1=80496335271444.1.2.3.0 bus2=80496325271444.1.2.3.0 r1=0.975 x1=0.47 length=0.034319 units=km normamps=152.0
new line.52882526 phases=3 bus1=80495075271474.1.2.3.0 bus2=80495085271474.1.2.3.0 r1=0.975 x1=0.47 length=0.02547 units=km normamps=152.0
new line.52882545 phases=3 bus1=80489035271474.1.2.3.0 bus2=80489045271474.1.2.3.0 r1=0.975 x1=0.47 length=0.025327 units=km normamps=152.0
new line.52882547 phases=3 bus1=80489055271474.1.2.3.0 bus2=80489065271474.1.2.3.0 r1=0.975 x1=0.47 length=0.021457 units=km normamps=152.0
new line.52882551 phases=3 bus1=80489085271474.1.2.3.0 bus2=80497365271474.1.2.3.0 r1=0.975 x1=0.47 length=0.017301 units=km normamps=152.0
new line.52882558 phases=3 bus1=80500155271474.1.2.3.0 bus2=80500165271474.1.2.3.0 r1=0.975 x1=0.47 length=0.019069 units=km normamps=152.0
new line.52882564 phases=3 bus1=80500265271474.1.2.3.0 bus2=80494885271474.1.2.3.0 r1=0.975 x1=0.47 length=0.020245 units=km normamps=152.0
new line.52882577 phases=3 bus1=80494545271474.1.2.3.0 bus2=80494555271474.1.2.3.0 r1=0.975 x1=0.47 length=0.039822 units=km normamps=152.0
new line.52882578 phases=3 bus1=80494555271474.1.2.3.0 bus2=80494565271474.1.2.3.0 r1=0.975 x1=0.47 length=0.043982 units=km normamps=152.0
new line.52882584 phases=3 bus1=80494635271474.1.2.3.0 bus2=80494625271474.1.2.3.0 r1=0.975 x1=0.47 length=0.02613 units=km normamps=152.0
new line.52882592 phases=3 bus1=80494715271474.1.2.3.0 bus2=80494705271474.1.2.3.0 r1=1.551 x1=0.49 length=0.012876 units=km normamps=114.0
new line.52882598 phases=3 bus1=80494525271474.1.2.3.0 bus2=80494775271474.1.2.3.0 r1=1.551 x1=0.49 length=0.038655 units=km normamps=114.0
new line.52882603 phases=3 bus1=80494815271474.1.2.3.0 bus2=80494825271474.1.2.3.0 r1=0.975 x1=0.47 length=0.027114 units=km normamps=152.0
new line.52882614 phases=3 bus1=80495005271474.1.2.3.0 bus2=80469705271474.1.2.3.0 r1=0.991 x1=0.1 length=0.0326 units=km normamps=100.0
new line.52882623 phases=3 bus1=80499565271475.1.2.3.0 bus2=80499575271475.1.2.3.0 r1=0.991 x1=0.1 length=0.025789 units=km normamps=100.0
new line.52882624 phases=3 bus1=80499575271475.1.2.3.0 bus2=80499585271475.1.2.3.0 r1=0.975 x1=0.47 length=0.013192 units=km normamps=152.0
new line.52882625 phases=3 bus1=80499405271475.1.2.3.0 bus2=80499585271475.1.2.3.0 r1=0.975 x1=0.47 length=0.026869 units=km normamps=152.0
new line.52882640 phases=3 bus1=80496555271444.1.2.3.0 bus2=87390755271444.1.2.3.0 r1=0.613 x1=0.45 length=0.018865 units=km normamps=203.0
new line.52882812 phases=3 bus1=80496255271461.1.2.3.0 bus2=80496245271461.1.2.3.0 r1=0.975 x1=0.47 length=0.028099 units=km normamps=152.0
new line.52882819 phases=3 bus1=80496595271461.1.2.3.0 bus2=80496965271461.1.2.3.0 r1=0.975 x1=0.47 length=0.030459 units=km normamps=152.0
new line.52882820 phases=3 bus1=80496975271461.1.2.3.0 bus2=80496965271461.1.2.3.0 r1=0.613 x1=0.45 length=0.025129 units=km normamps=203.0
new line.52882828 phases=3 bus1=80497155271461.1.2.3.0 bus2=80497145271461.1.2.3.0 r1=0.975 x1=0.47 length=0.025243 units=km normamps=152.0
new line.52882835 phases=3 bus1=80499005271456.1.2.3.0 bus2=80498995271456.1.2.3.0 r1=0.975 x1=0.47 length=0.038178 units=km normamps=152.0
new line.52882839 phases=3 bus1=80499045271456.1.2.3.0 bus2=80499035271456.1.2.3.0 r1=0.975 x1=0.47 length=0.024899 units=km normamps=152.0
new line.52882858 phases=3 bus1=80496225271461.1.2.3.0 bus2=80499145271461.1.2.3.0 r1=0.975 x1=0.47 length=0.02621 units=km normamps=152.0
new line.52882861 phases=3 bus1=80499165271461.1.2.3.0 bus2=80499175271461.1.2.3.0 r1=0.975 x1=0.47 length=0.029442 units=km normamps=152.0
new line.52882876 phases=3 bus1=80500115271462.1.2.3.0 bus2=80500105271462.1.2.3.0 r1=0.975 x1=0.47 length=0.016186 units=km normamps=152.0
new line.52882888 phases=3 bus1=80500375271462.1.2.3.0 bus2=80500385271462.1.2.3.0 r1=0.991 x1=0.1 length=0.026298 units=km normamps=100.0
new line.52882967 phases=3 bus1=80499795271475.1.2.3.0 bus2=80499785271475.1.2.3.0 r1=0.613 x1=0.45 length=0.021399 units=km normamps=203.0
new line.52883018 phases=3 bus1=80499435271475.1.2.3.0 bus2=80499425271475.1.2.3.0 r1=0.975 x1=0.47 length=0.033235 units=km normamps=152.0
new line.52883023 phases=3 bus1=80499465271475.1.2.3.0 bus2=80499475271475.1.2.3.0 r1=0.975 x1=0.47 length=0.043076 units=km normamps=152.0
new line.52883025 phases=3 bus1=80499485271475.1.2.3.0 bus2=80499495271475.1.2.3.0 r1=0.975 x1=0.47 length=0.012012 units=km normamps=152.0
new line.53747369 phases=3 bus1=80497785271456.1.2.3.0 bus2=80499365271456.1.2.3.0 r1=0.991 x1=0.1 length=0.025168 units=km normamps=100.0
new line.53849165 phases=3 bus1=80499365271475.1.2.3.0 bus2=80499395271475.1.2.3.0 r1=0.991 x1=0.1 length=0.019882 units=km normamps=100.0
new line.54032064 phases=3 bus1=80498665271438.1.2.3.0 bus2=85532255271438.1.2.3.0 r1=0.613 x1=0.45 length=0.018544 units=km normamps=203.0
new line.54044248 phases=3 bus1=80499785271475.1.2.3.0 bus2=8562755.1.2.3.0 r1=0.975 x1=0.47 length=0.024811 units=km normamps=152.0
new line.54044251 phases=3 bus1=8562755.1.2.3.0 bus2=8893027.1.2.3.0 r1=0.975 x1=0.47 length=0.019981 units=km normamps=152.0
new line.54178509 phases=3 bus1=86676235446003.1.2.3.0 bus2=80466615446003.1.2.3.0 r1=0.991 x1=0.1 length=0.008275 units=km normamps=100.0
new line.54212056 phases=3 bus1=80498695271438.1.2.3.0 bus2=86947225271438.1.2.3.0 r1=3.514 x1=0.1 length=0.010065 units=km normamps=44.0
new line.54257998 phases=3 bus1=87301525271443.1.2.3.0 bus2=80496355271443.1.2.3.0 r1=0.613 x1=0.45 length=0.032068 units=km normamps=203.0
new line.54383734 phases=3 bus1=88234725335160.1.2.3.0 bus2=80498785335160.1.2.3.0 r1=0.975 x1=0.47 length=0.009069 units=km normamps=152.0
new line.54391092 phases=3 bus1=88291725271456.1.2.3.0 bus2=80499115271456.1.2.3.0 r1=0.975 x1=0.47 length=0.030036 units=km normamps=152.0
new line.54436775 phases=3 bus1=88646935271475.1.2.3.0 bus2=93439925271475.1.2.3.0 r1=0.613 x1=0.45 length=0.013614 units=km normamps=203.0
new line.54762036 phases=1 bus1=80495105271474.1.0 bus2=91888355271474.1.0 r1=0.975 x1=0.47 length=0.008501 units=km normamps=152.0
new line.55183338 phases=3 bus1=94434515446003.1.2.3.0 bus2=94434495446003.1.2.3.0 r1=0.991 x1=0.1 length=0.009368 units=km normamps=100.0
new line.55206507 phases=3 bus1=94584755271456.1.2.3.0 bus2=94585165271456.1.2.3.0 r1=0.506 x1=0.1 length=0.009212 units=km normamps=157.0
new line.55387562 phases=3 bus1=96048565271461.1.2.3.0 bus2=80496935271461.1.2.3.0 r1=0.613 x1=0.45 length=0.006424 units=km normamps=203.0
new line.52881822 phases=1 bus1=80496395335160.1.0 bus2=80496385335160.1.0 r1=0.975 x1=0.47 length=0.015192 units=km normamps=152.0
new line.52881828 phases=3 bus1=80496465335160.1.2.3.0 bus2=80496445335160.1.2.3.0 r1=0.975 x1=0.47 length=0.019081 units=km normamps=152.0
new line.52881829 phases=3 bus1=80496475335160.1.2.3.0 bus2=80496465335160.1.2.3.0 r1=0.975 x1=0.47 length=0.023415 units=km normamps=152.0
new line.52881834 phases=3 bus1=80498535335160.1.2.3.0 bus2=80498545335160.1.2.3.0 r1=0.975 x1=0.47 length=0.010749 units=km normamps=152.0
new line.52881840 phases=3 bus1=80498585335160.1.2.3.0 bus2=80498615335160.1.2.3.0 r1=0.613 x1=0.45 length=0.042268 units=km normamps=203.0
new line.52881844 phases=3 bus1=80498665271438.1.2.3.0 bus2=80498655271438.1.2.3.0 r1=0.613 x1=0.45 length=0.020425 units=km normamps=203.0
new line.52882188 phases=3 bus1=80484775446003.1.2.3.0 bus2=80484755446003.1.2.3.0 r1=0.975 x1=0.47 length=0.027942 units=km normamps=152.0
new line.52882196 phases=3 bus1=80485165446003.1.2.3.0 bus2=80485155446003.1.2.3.0 r1=0.975 x1=0.47 length=0.010718 units=km normamps=152.0
new line.52882201 phases=3 bus1=80466605446003.1.2.3.0 bus2=86676235446003.1.2.3.0 r1=0.991 x1=0.1 length=0.03817 units=km normamps=100.0
new line.52882203 phases=3 bus1=80485195446003.1.2.3.0 bus2=80485205446003.1.2.3.0 r1=0.991 x1=0.1 length=0.030153 units=km normamps=100.0
new line.52882207 phases=3 bus1=80485235446003.1.2.3.0 bus2=80484775446003.1.2.3.0 r1=0.975 x1=0.47 length=0.02174 units=km normamps=152.0
new line.52882410 phases=3 bus1=80499615271434.1.2.3.0 bus2=80499625271434.1.2.3.0 r1=1.551 x1=0.49 length=0.009449 units=km normamps=114.0
new line.52882411 phases=3 bus1=80499625271434.1.2.3.0 bus2=80499635271434.1.2.3.0 r1=1.551 x1=0.49 length=0.026719 units=km normamps=114.0
new line.52882413 phases=3 bus1=80499655271434.1.2.3.0 bus2=80499645271434.1.2.3.0 r1=0.975 x1=0.47 length=0.019299 units=km normamps=152.0
new line.52882417 phases=3 bus1=80499875271434.1.2.3.0 bus2=80499865271434.1.2.3.0 r1=0.975 x1=0.47 length=0.035357 units=km normamps=152.0
...